functions/OneTimeScripts/validationAgainstOpenDSS_MATLAB/ieee123_1ph_created/results/powers5.csv
Element, Terminal, P(kW), Q(kvar),  P_Normal, Q_Normal, P_Emergency, Q_Emergency
"Line.L115"             ,   1,       544.4,       201.4,         0.0,         0.0,         0.0,         0.0
"Line.L115"             ,   2,      -543.0,      -198.6
"Line.L1"               ,   1,         4.5,         2.3,         0.0,         0.0,         0.0,         0.0
"Line.L1"               ,   2,        -4.5,        -2.3
"Line.L2"               ,   1,        22.7,        11.3,         0.0,         0.0,         0.0,         0.0
"Line.L2"               ,   2,       -22.7,       -11.3
"Line.L3"               ,   1,       506.8,       180.5,         0.0,         0.0,         0.0,         0.0
"Line.L3"               ,   2,      -505.9,      -178.7
"Line.L4"               ,   1,         9.1,         4.5,         0.0,         0.0,         0.0,         0.0
"Line.L4"               ,   2,        -9.1,        -4.5
"Line.L5"               ,   1,        13.6,         6.8,         0.0,         0.0,         0.0,         0.0
"Line.L5"               ,   2,       -13.6,        -6.8
"Line.L6"               ,   1,         9.1,         4.5,         0.0,         0.0,         0.0,         0.0
"Line.L6"               ,   2,        -9.1,        -4.5
"Line.L7"               ,   1,       501.4,       176.5,         0.0,         0.0,         0.0,         0.0
"Line.L7"               ,   2,      -500.8,      -175.3
"Line.L8"               ,   1,         4.5,         2.3,         0.0,         0.0,         0.0,         0.0
"Line.L8"               ,   2,        -4.5,        -2.3
"Line.L9"               ,   1,         9.5,        11.4,         0.0,         0.0,         0.0,         0.0
"Line.L9"               ,   2,        -9.5,       -11.4
"Line.L10"              ,   1,       486.8,       161.6,         0.0,         0.0,         0.0,         0.0
"Line.L10"              ,   2,      -486.0,      -160.0
"Line.L11"              ,   1,        13.8,         6.9,         0.0,         0.0,         0.0,         0.0
"Line.L11"              ,   2,       -13.7,        -6.9
"Line.L12"              ,   1,        22.7,        11.4,         0.0,         0.0,         0.0,         0.0
"Line.L12"              ,   2,       -22.7,       -11.3
"Line.L13"              ,   1,       170.8,       149.1,         0.0,         0.0,         0.0,         0.0
"Line.L13"              ,   2,      -170.4,      -148.2
"Line.L14"              ,   1,         9.2,         4.6,         0.0,         0.0,         0.0,         0.0
"Line.L14"              ,   2,        -9.2,        -4.6
"Line.L15"              ,   1,         4.6,         2.3,         0.0,         0.0,         0.0,         0.0
"Line.L15"              ,   2,        -4.6,        -2.3
"Line.L16"              ,   1,         9.1,         4.5,         0.0,         0.0,         0.0,         0.0
"Line.L16"              ,   2,        -9.1,        -4.5
"Line.L17"              ,   1,         4.5,         2.3,         0.0,         0.0,         0.0,         0.0
"Line.L17"              ,   2,        -4.5,        -2.3
"Line.L18"              ,   1,        18.2,         9.1,         0.0,         0.0,         0.0,         0.0
"Line.L18"              ,   2,       -18.2,        -9.1
"Line.L19"              ,   1,        50.2,        31.8,         0.0,         0.0,         0.0,         0.0
"Line.L19"              ,   2,       -50.2,       -31.8
"Line.L20"              ,   1,         9.1,         4.5,         0.0,         0.0,         0.0,         0.0
"Line.L20"              ,   2,        -9.1,        -4.5
"Line.L21"              ,   1,         9.1,         4.5,         0.0,         0.0,         0.0,         0.0
"Line.L21"              ,   2,        -9.1,        -4.5
"Line.L22"              ,   1,        41.1,        27.2,         0.0,         0.0,         0.0,         0.0
"Line.L22"              ,   2,       -41.1,       -27.2
"Line.L23"              ,   1,         9.1,         4.5,         0.0,         0.0,         0.0,         0.0
"Line.L23"              ,   2,        -9.1,        -4.5
"Line.L24"              ,   1,        32.0,        22.7,         0.0,         0.0,         0.0,         0.0
"Line.L24"              ,   2,       -32.0,       -22.7
"Line.L25"              ,   1,        18.0,         9.0,         0.0,         0.0,         0.0,         0.0
"Line.L25"              ,   2,       -18.0,        -9.0
"Line.L26"              ,   1,        14.0,        13.6,         0.0,         0.0,         0.0,         0.0
"Line.L26"              ,   2,       -14.0,       -13.6
"Line.L27"              ,   1,         9.0,         4.5,         0.0,         0.0,         0.0,         0.0
"Line.L27"              ,   2,        -9.0,        -4.5
"Line.L28"              ,   1,         9.0,         4.5,         0.0,         0.0,         0.0,         0.0
"Line.L28"              ,   2,        -9.0,        -4.5
"Line.L29"              ,   1,         9.0,         4.5,         0.0,         0.0,         0.0,         0.0
"Line.L29"              ,   2,        -9.0,        -4.5
"Line.L30"              ,   1,        18.2,         9.1,         0.0,         0.0,         0.0,         0.0
"Line.L30"              ,   2,       -18.2,        -9.1
"Line.L31"              ,   1,         9.1,         4.5,         0.0,         0.0,         0.0,         0.0
"Line.L31"              ,   2,        -9.1,        -4.5
"Line.L32"              ,   1,        -0.0,        -0.0,         0.0,         0.0,         0.0,         0.0
"Line.L32"              ,   2,         0.0,        -0.0
"Line.L33"              ,   1,         4.5,         2.3,         0.0,         0.0,         0.0,         0.0
"Line.L33"              ,   2,        -4.5,        -2.3
"Line.L34"              ,   1,        13.6,         6.8,         0.0,         0.0,         0.0,         0.0
"Line.L34"              ,   2,       -13.6,        -6.8
"Line.L35"              ,   1,        18.2,         9.1,         0.0,         0.0,         0.0,         0.0
"Line.L35"              ,   2,       -18.2,        -9.1
"Line.L36"              ,   1,        74.6,        93.5,         0.0,         0.0,         0.0,         0.0
"Line.L36"              ,   2,       -74.6,       -93.4
"Line.L37"              ,   1,         9.1,         4.5,         0.0,         0.0,         0.0,         0.0
"Line.L37"              ,   2,        -9.1,        -4.5
"Line.L38"              ,   1,         9.1,         4.5,         0.0,         0.0,         0.0,         0.0
"Line.L38"              ,   2,        -9.1,        -4.5
"Line.L39"              ,   1,         4.5,         2.3,         0.0,         0.0,         0.0,         0.0
"Line.L39"              ,   2,        -4.5,        -2.3
"Line.L40"              ,   1,         4.5,         2.3,         0.0,         0.0,         0.0,         0.0
"Line.L40"              ,   2,        -4.5,        -2.3
"Line.L41"              ,   1,        70.0,        91.2,         0.0,         0.0,         0.0,         0.0
"Line.L41"              ,   2,       -70.0,       -91.1
"Line.L42"              ,   1,         9.1,         4.5,         0.0,         0.0,         0.0,         0.0
"Line.L42"              ,   2,        -9.1,        -4.5
"Line.L43"              ,   1,        56.3,        84.3,         0.0,         0.0,         0.0,         0.0
"Line.L43"              ,   2,       -56.3,       -84.2
"Line.L44"              ,   1,         9.1,         4.5,         0.0,         0.0,         0.0,         0.0
"Line.L44"              ,   2,        -9.1,        -4.5
"Line.L45"              ,   1,        47.2,        79.7,         0.0,         0.0,         0.0,         0.0
"Line.L45"              ,   2,       -47.2,       -79.6
"Line.L46"              ,   1,         4.6,         2.3,         0.0,         0.0,         0.0,         0.0
"Line.L46"              ,   2,        -4.6,        -2.3
"Line.L47"              ,   1,       -22.2,        34.1,         0.0,         0.0,         0.0,         0.0
"Line.L47"              ,   2,        22.2,       -34.1
"Line.L48"              ,   1,        45.5,        28.5,         0.0,         0.0,         0.0,         0.0
"Line.L48"              ,   2,       -45.5,       -28.4
"Line.L49"              ,   1,        13.7,         6.8,         0.0,         0.0,         0.0,         0.0
"Line.L49"              ,   2,       -13.7,        -6.8
"Line.L50"              ,   1,         4.6,         2.3,         0.0,         0.0,         0.0,         0.0
"Line.L50"              ,   2,        -4.6,        -2.3
"Line.L51"              ,   1,         0.0,        -0.0,         0.0,         0.0,         0.0,         0.0
"Line.L51"              ,   2,        -0.0,        -0.0
"Line.L52"              ,   1,       283.0,        -5.7,         0.0,         0.0,         0.0,         0.0
"Line.L52"              ,   2,      -282.9,         6.0
"Line.L53"              ,   1,       273.8,       -10.6,         0.0,         0.0,         0.0,         0.0
"Line.L53"              ,   2,      -273.7,        10.8
"Line.L54"              ,   1,         9.1,         4.5,         0.0,         0.0,         0.0,         0.0
"Line.L54"              ,   2,        -9.1,        -4.5
"Line.L55"              ,   1,       264.6,       -15.3,         0.0,         0.0,         0.0,         0.0
"Line.L55"              ,   2,      -264.3,        15.8
"Line.L56"              ,   1,         4.5,         2.3,         0.0,         0.0,         0.0,         0.0
"Line.L56"              ,   2,        -4.5,        -2.3
"Line.L57"              ,   1,         2.4,         4.5,         0.0,         0.0,         0.0,         0.0
"Line.L57"              ,   2,        -2.4,        -4.5
"Line.L58"              ,   1,       261.9,       -20.4,         0.0,         0.0,         0.0,         0.0
"Line.L58"              ,   2,      -261.4,        21.4
"Line.L59"              ,   1,         4.5,         2.3,         0.0,         0.0,         0.0,         0.0
"Line.L59"              ,   2,        -4.5,        -2.3
"Line.L60"              ,   1,         0.0,        -0.0,         0.0,         0.0,         0.0,         0.0
"Line.L60"              ,   2,        -0.0,         0.0
"Line.L61"              ,   1,        37.6,        47.7,         0.0,         0.0,         0.0,         0.0
"Line.L61"              ,   2,       -37.5,       -47.7
"Line.L62"              ,   1,        28.4,        43.1,         0.0,         0.0,         0.0,         0.0
"Line.L62"              ,   2,       -28.4,       -43.1
"Line.L63"              ,   1,        19.3,        38.6,         0.0,         0.0,         0.0,         0.0
"Line.L63"              ,   2,       -19.3,       -38.6
"Line.L64"              ,   1,         2.2,        30.7,         0.0,         0.0,         0.0,         0.0
"Line.L64"              ,   2,        -2.2,       -30.7
"Line.L65"              ,   1,        17.1,         7.9,         0.0,         0.0,         0.0,         0.0
"Line.L65"              ,   2,       -17.1,        -8.0
"Line.L66"              ,   1,        27.5,        13.8,         0.0,         0.0,         0.0,         0.0
"Line.L66"              ,   2,       -27.5,       -13.8
"Line.L67"              ,   1,       103.9,      -136.2,         0.0,         0.0,         0.0,         0.0
"Line.L67"              ,   2,      -103.8,       136.3
"Line.L68"              ,   1,        87.7,        50.6,         0.0,         0.0,         0.0,         0.0
"Line.L68"              ,   2,       -87.6,       -50.5
"Line.L69"              ,   1,        22.9,        11.5,         0.0,         0.0,         0.0,         0.0
"Line.L69"              ,   2,       -22.9,       -11.5
"Line.L70"              ,   1,        13.8,         6.9,         0.0,         0.0,         0.0,         0.0
"Line.L70"              ,   2,       -13.8,        -6.9
"Line.L71"              ,   1,         9.2,         4.6,         0.0,         0.0,         0.0,         0.0
"Line.L71"              ,   2,        -9.2,        -4.6
"Line.L72"              ,   1,        27.5,        13.8,         0.0,         0.0,         0.0,         0.0
"Line.L72"              ,   2,       -27.5,       -13.8
"Line.L73"              ,   1,        76.3,      -150.1,         0.0,         0.0,         0.0,         0.0
"Line.L73"              ,   2,       -76.2,       150.2
"Line.L74"              ,   1,        18.3,         9.2,         0.0,         0.0,         0.0,         0.0
"Line.L74"              ,   2,       -18.3,        -9.2
"Line.L75"              ,   1,         9.2,         4.6,         0.0,         0.0,         0.0,         0.0
"Line.L75"              ,   2,        -9.2,        -4.6
"Line.L76"              ,   1,        55.5,      -171.3,         0.0,         0.0,         0.0,         0.0
"Line.L76"              ,   2,       -55.4,       171.6
"Line.L77"              ,   1,        46.3,       -20.2,         0.0,         0.0,         0.0,         0.0
"Line.L77"              ,   2,       -46.2,        20.2
"Line.L78"              ,   1,        46.2,      -176.1,         0.0,         0.0,         0.0,         0.0
"Line.L78"              ,   2,       -46.2,       176.2
"Line.L79"              ,   1,         9.2,         4.6,         0.0,         0.0,         0.0,         0.0
"Line.L79"              ,   2,        -9.2,        -4.6
"Line.L80"              ,   1,        37.1,      -180.8,         0.0,         0.0,         0.0,         0.0
"Line.L80"              ,   2,       -36.9,       181.1
"Line.L81"              ,   1,        27.7,      -185.7,         0.0,         0.0,         0.0,         0.0
"Line.L81"              ,   2,       -27.7,       185.9
"Line.L82"              ,   1,        13.9,      -192.7,         0.0,         0.0,         0.0,         0.0
"Line.L82"              ,   2,       -13.8,       192.9
"Line.L83"              ,   1,        13.7,         6.9,         0.0,         0.0,         0.0,         0.0
"Line.L83"              ,   2,       -13.7,        -6.9
"Line.L84"              ,   1,         4.7,      -197.5,         0.0,         0.0,         0.0,         0.0
"Line.L84"              ,   2,        -4.6,       197.7
"Line.L85"              ,   1,         9.2,         4.6,         0.0,         0.0,         0.0,         0.0
"Line.L85"              ,   2,        -9.2,        -4.6
"Line.L86"              ,   1,        41.7,       -22.5,         0.0,         0.0,         0.0,         0.0
"Line.L86"              ,   2,       -41.6,        22.5
"Line.L87"              ,   1,         9.2,       -12.1,         0.0,         0.0,         0.0,         0.0
"Line.L87"              ,   2,        -9.2,        12.1
"Line.L88"              ,   1,        36.7,       -15.0,         0.0,         0.0,         0.0,         0.0
"Line.L88"              ,   2,       -36.7,        15.0
"Line.L89"              ,   1,         9.2,       -12.1,         0.0,         0.0,         0.0,         0.0
"Line.L89"              ,   2,        -9.2,        12.1
"Line.L90"              ,   1,        27.5,        -2.9,         0.0,         0.0,         0.0,         0.0
"Line.L90"              ,   2,       -27.5,         2.9
"Line.L91"              ,   1,         9.2,       -12.1,         0.0,         0.0,         0.0,         0.0
"Line.L91"              ,   2,        -9.2,        12.1
"Line.L92"              ,   1,        18.3,         9.2,         0.0,         0.0,         0.0,         0.0
"Line.L92"              ,   2,       -18.3,        -9.2
"Line.L93"              ,   1,         9.2,         4.6,         0.0,         0.0,         0.0,         0.0
"Line.L93"              ,   2,        -9.2,        -4.6
"Line.L94"              ,   1,         9.2,         4.6,         0.0,         0.0,         0.0,         0.0
"Line.L94"              ,   2,        -9.2,        -4.6
"Line.L95"              ,   1,         4.6,         2.3,         0.0,         0.0,         0.0,         0.0
"Line.L95"              ,   2,        -4.6,        -2.3
"Line.L96"              ,   1,        14.2,        13.7,         0.0,         0.0,         0.0,         0.0
"Line.L96"              ,   2,       -14.2,       -13.7
"Line.L97"              ,   1,         5.0,         9.2,         0.0,         0.0,         0.0,         0.0
"Line.L97"              ,   2,        -5.0,        -9.2
"Line.L98"              ,   1,        -4.2,         4.6,         0.0,         0.0,         0.0,         0.0
"Line.L98"              ,   2,         4.2,        -4.6
"Line.L99"              ,   1,         0.0,        -0.0,         0.0,         0.0,         0.0,         0.0
"Line.L99"              ,   2,        -0.0,         0.0
"Line.L118"             ,   1,        73.5,        36.8,         0.0,         0.0,         0.0,         0.0
"Line.L118"             ,   2,       -73.4,       -36.7
"Line.L100"             ,   1,        22.9,        11.5,         0.0,         0.0,         0.0,         0.0
"Line.L100"             ,   2,       -22.9,       -11.5
"Line.L101"             ,   1,        50.5,        25.3,         0.0,         0.0,         0.0,         0.0
"Line.L101"             ,   2,       -50.5,       -25.3
"Line.L102"             ,   1,        18.3,         9.2,         0.0,         0.0,         0.0,         0.0
"Line.L102"             ,   2,       -18.3,        -9.2
"Line.L103"             ,   1,         9.2,         4.6,         0.0,         0.0,         0.0,         0.0
"Line.L103"             ,   2,        -9.2,        -4.6
"Line.L104"             ,   1,        18.3,         9.2,         0.0,         0.0,         0.0,         0.0
"Line.L104"             ,   2,       -18.3,        -9.2
"Line.L105"             ,   1,        32.2,        16.1,         0.0,         0.0,         0.0,         0.0
"Line.L105"             ,   2,       -32.1,       -16.1
"Line.L106"             ,   1,         9.2,         4.6,         0.0,         0.0,         0.0,         0.0
"Line.L106"             ,   2,        -9.2,        -4.6
"Line.L107"             ,   1,        32.1,        16.1,         0.0,         0.0,         0.0,         0.0
"Line.L107"             ,   2,       -32.1,       -16.1
"Line.L108"             ,   1,         0.0,        -0.0,         0.0,         0.0,         0.0,         0.0
"Line.L108"             ,   2,         0.0,         0.0
"Line.L109"             ,   1,        23.0,        11.5,         0.0,         0.0,         0.0,         0.0
"Line.L109"             ,   2,       -22.9,       -11.5
"Line.L110"             ,   1,         4.6,         2.3,         0.0,         0.0,         0.0,         0.0
"Line.L110"             ,   2,        -4.6,        -2.3
"Line.L111"             ,   1,        18.4,         9.2,         0.0,         0.0,         0.0,         0.0
"Line.L111"             ,   2,       -18.4,        -9.2
"Line.L112"             ,   1,        13.8,         6.9,         0.0,         0.0,         0.0,         0.0
"Line.L112"             ,   2,       -13.8,        -6.9
"Line.L113"             ,   1,         4.6,         2.3,         0.0,         0.0,         0.0,         0.0
"Line.L113"             ,   2,        -4.6,        -2.3
"Line.L114"             ,   1,       102.0,       107.3,         0.0,         0.0,         0.0,         0.0
"Line.L114"             ,   2,      -101.9,      -107.2
"Line.L116"             ,   1,       292.4,        -0.4,         0.0,         0.0,         0.0,         0.0
"Line.L116"             ,   2,      -292.1,         1.2
"Line.L117"             ,   1,       219.3,       -71.4,         0.0,         0.0,         0.0,         0.0
"Line.L117"             ,   2,      -219.1,        71.8
"Line.SW1"              ,   1,       544.4,       201.4,         0.0,         0.0,         0.0,         0.0
"Line.SW1"              ,   2,      -544.4,      -201.4
"Line.SW2"              ,   1,       292.4,        -0.4,         0.0,         0.0,         0.0,         0.0
"Line.SW2"              ,   2,      -292.4,         0.4
"Line.SW3"              ,   1,       102.0,       107.3,         0.0,         0.0,         0.0,         0.0
"Line.SW3"              ,   2,      -102.0,      -107.3
"Line.SW4"              ,   1,       219.3,       -71.4,         0.0,         0.0,         0.0,         0.0
"Line.SW4"              ,   2,      -219.3,        71.4
"Line.SW5"              ,   1,        73.5,        36.8,         0.0,         0.0,         0.0,         0.0
"Line.SW5"              ,   2,       -73.5,       -36.8
"Line.XFM1"             ,   1,         0.0,         0.0,         0.0,         0.0,         0.0,         0.0
"Line.XFM1"             ,   2,         0.0,         0.0
"Transformer.REG1A"     ,   1,       544.4,       201.4,         0.0,         0.0,         0.0,         0.0
"Transformer.REG1A"     ,   2,      -544.4,      -201.4
"Transformer.REG2A"     ,   1,        13.8,         6.9,         0.0,         0.0,         0.0,         0.0
"Transformer.REG2A"     ,   2,       -13.8,        -6.9
"Transformer.REG3A"     ,   1,        18.0,         9.0,         0.0,         0.0,         0.0,         0.0
"Transformer.REG3A"     ,   2,       -18.0,        -9.0
"Transformer.REG4A"     ,   1,       219.3,       -71.4,         0.0,         0.0,         0.0,         0.0
"Transformer.REG4A"     ,   2,      -219.3,        71.4
"Load.S1"               ,   1,        10.5,         5.3
"Load.S2"               ,   1,         5.3,         2.6
"Load.S4"               ,   1,        10.5,         5.3
"Load.S5"               ,   1,         5.3,         2.6
"Load.S6"               ,   1,        10.5,         5.3
"Load.S7"               ,   1,         5.3,         2.6
"Load.S9"               ,   1,        10.5,         5.3
"Load.S10"              ,   1,         5.3,         2.6
"Load.S11"              ,   1,        10.5,         5.3
"Load.S12"              ,   1,         5.3,         2.6
"Load.S16"              ,   1,        10.5,         5.3
"Load.S17"              ,   1,         5.3,         2.6
"Load.S19"              ,   1,        10.5,         5.3
"Load.S20"              ,   1,        10.5,         5.3
"Load.S22"              ,   1,        10.5,         5.3
"Load.S24"              ,   1,        10.5,         5.3
"Load.S28"              ,   1,        10.5,         5.3
"Load.S29"              ,   1,        10.5,         5.3
"Load.S30"              ,   1,        10.5,         5.3
"Load.S31"              ,   1,         5.3,         2.6
"Load.S32"              ,   1,         5.3,         2.6
"Load.S33"              ,   1,        10.5,         5.3
"Load.S34"              ,   1,        10.5,         5.3
"Load.S35"              ,   1,        10.5,         5.3
"Load.S37"              ,   1,        10.5,         5.3
"Load.S38"              ,   1,         5.3,         2.6
"Load.S39"              ,   1,         5.3,         2.6
"Load.S41"              ,   1,         5.3,         2.6
"Load.S42"              ,   1,         5.3,         2.6
"Load.S43"              ,   1,        10.5,         5.3
"Load.S45"              ,   1,         5.3,         2.6
"Load.S46"              ,   1,         5.3,         2.6
"Load.S47"              ,   1,        27.6,        19.7
"Load.S48"              ,   1,        55.2,        39.4
"Load.S49"              ,   1,        36.8,        25.0
"Load.S50"              ,   1,        10.5,         5.3
"Load.S51"              ,   1,         5.3,         2.6
"Load.S52"              ,   1,        10.5,         5.3
"Load.S53"              ,   1,        10.5,         5.3
"Load.S55"              ,   1,         5.3,         2.6
"Load.S56"              ,   1,         5.3,         2.6
"Load.S58"              ,   1,         5.3,         2.6
"Load.S59"              ,   1,         5.3,         2.6
"Load.S60"              ,   1,         5.3,         2.6
"Load.S62"              ,   1,        10.5,         5.3
"Load.S63"              ,   1,        10.5,         5.3
"Load.S64"              ,   1,        19.7,         9.2
"Load.S65"              ,   1,        36.8,        26.3
"Load.S66"              ,   1,        19.7,         9.2
"Load.S68"              ,   1,         5.3,         2.6
"Load.S69"              ,   1,        10.5,         5.3
"Load.S70"              ,   1,         5.3,         2.6
"Load.S71"              ,   1,        10.5,         5.3
"Load.S73"              ,   1,        10.5,         5.3
"Load.S74"              ,   1,        10.5,         5.3
"Load.S75"              ,   1,        10.5,         5.3
"Load.S76"              ,   1,        64.4,        47.3
"Load.S77"              ,   1,        10.5,         5.3
"Load.S79"              ,   1,        10.5,         5.3
"Load.S80"              ,   1,        10.5,         5.3
"Load.S82"              ,   1,        10.5,         5.3
"Load.S83"              ,   1,         5.3,         2.6
"Load.S84"              ,   1,         5.3,         2.6
"Load.S85"              ,   1,        10.5,         5.3
"Load.S86"              ,   1,         5.3,         2.6
"Load.S87"              ,   1,        10.5,         5.3
"Load.S88"              ,   1,        10.5,         5.3
"Load.S90"              ,   1,        10.5,         5.3
"Load.S92"              ,   1,        10.5,         5.3
"Load.S94"              ,   1,        10.5,         5.3
"Load.S95"              ,   1,         5.3,         2.6
"Load.S96"              ,   1,         5.3,         2.6
"Load.S98"              ,   1,        10.5,         5.3
"Load.S99"              ,   1,        10.5,         5.3
"Load.S100"             ,   1,        10.5,         5.3
"Load.S102"             ,   1,         5.3,         2.6
"Load.S103"             ,   1,        10.5,         5.3
"Load.S104"             ,   1,        10.5,         5.3
"Load.S106"             ,   1,        10.5,         5.3
"Load.S107"             ,   1,        10.5,         5.3
"Load.S109"             ,   1,        10.5,         5.3
"Load.S111"             ,   1,         5.3,         2.6
"Load.S112"             ,   1,         5.3,         2.6
"Load.S113"             ,   1,        10.5,         5.3
"Load.S114"             ,   1,         5.3,         2.6
"Generator.C83"         ,   1,        -0.0,      -200.0
"Generator.C88"         ,   1,        -0.0,       -16.7
"Generator.C90"         ,   1,        -0.0,       -16.7
"Generator.C92"         ,   1,        -0.0,       -16.7
"PVSystem.9"            ,   1,       -13.3,         0.0
"PVSystem.28"           ,   1,       -13.3,         0.0
"PVSystem.48"           ,   1,       -70.0,         0.0
"PVSystem.58"           ,   1,        -6.7,         0.0
"PVSystem.65"           ,   1,       -46.7,         0.0
"PVSystem.76"           ,   1,       -81.7,         0.0
"PVSystem.87"           ,   1,       -13.3,         0.0
"PVSystem.100"          ,   1,       -13.3,         0.0
"Storage.BATTERY9"      ,   1,         0.0,         0.0
"Storage.BATTERY28"     ,   1,         0.0,         0.0
"Storage.BATTERY48"     ,   1,         0.0,         0.0
"Storage.BATTERY58"     ,   1,         0.0,         0.0
"Storage.BATTERY65"     ,   1,         0.0,         0.0
"Storage.BATTERY76"     ,   1,         0.0,         0.0
"Storage.BATTERY87"     ,   1,         0.0,         0.0
"Storage.BATTERY100"    ,   1,         0.0,         0.0
